Circuit: * C:\Users\Nived\Desktop\ANALOG_IC_PROJECT\Draft2.asc

Ignoring BSIM parameter XL
Ignoring BSIM parameter XW
Ignoring BSIM parameter XL
Ignoring BSIM parameter XW
Ignoring BSIM parameter XL
Ignoring BSIM parameter XW
Ignoring BSIM parameter XL
Ignoring BSIM parameter XW
WARNING: Node N002 is floating.
WARNING: Node NC_01 is floating.
WARNING: Node NC_02 is floating.

WARNING: Less than two connections to node NC_01.  This node is used by M1.
WARNING: Less than two connections to node NC_02.  This node is used by M2.
Direct Newton iteration for .op point succeeded.

Date: Wed May 10 10:39:42 2017
Total elapsed time: 0.566 seconds.

tnom = 27
temp = 27
method = trap
totiter = 24
traniter = 0
tranpoints = 0
accept = 0
rejected = 0
matrix size = 18
fillins = 0
solver = Normal
Matrix Compiler1:      49 opcodes
Matrix Compiler2: 1.41 KB object code size
