Circuit: * C:\Users\Nived\Desktop\ANALOG_IC_PROJECT - Copy\Implementation.asc

Ignoring BSIM parameter XL
Ignoring BSIM parameter XW
Ignoring BSIM parameter XL
Ignoring BSIM parameter XW
Ignoring BSIM parameter XL
Ignoring BSIM parameter XW
Ignoring BSIM parameter XL
Ignoring BSIM parameter XW
Ignoring BSIM parameter XL
Ignoring BSIM parameter XW
Ignoring BSIM parameter XL
Ignoring BSIM parameter XW
Direct Newton iteration failed to find .op point.  (Use ".option noopiter" to skip.)
Starting Gmin stepping
Gmin = 10
Gmin = 1.07374
Gmin = 0.115292
Gmin = 0.0123794
Gmin = 0.00132923
Gmin = 0.000142725
Gmin = 1.5325e-005
vernier = 0.5
Gmin = 2.85678e-006
vernier = 0.25
vernier = 0.333333
Gmin = 1.65938e-006
vernier = 0.444444
vernier = 0.592592
Gmin = 6.04111e-007
vernier = 0.790123
Gmin = 1.2294e-007
vernier = 1
Gmin = 1.3779e-008
Gmin = 1.47951e-009
Gmin = 1.58861e-010
Gmin = 1.70576e-011
Gmin = 1.83154e-012
Gmin = 1.9666e-013
Gmin = 0
Gmin stepping succeeded in finding the operating point.


Date: Thu May 11 18:37:42 2017
Total elapsed time: 1.357 seconds.

tnom = 27
temp = 27
method = modified trap
totiter = 17685
traniter = 16991
tranpoints = 6615
accept = 4036
rejected = 2579
matrix size = 38
fillins = 28
solver = Normal
Thread vector: 52.7/36.3[2] 14.2/9.6[2] 2.8/3.0[1] 0.5/1.5[1]  2592/500
Matrix Compiler1: 5.32 KB object code size  3.1/1.9/[1.1]
Matrix Compiler2: 4.10 KB object code size  1.8/2.1/[1.1]

