Circuit: * C:\Users\Nived\Desktop\ANALOG_IC_PROJECT\Stage1CommonModeFeedback.asc

Ignoring BSIM parameter XL
Ignoring BSIM parameter XW
Ignoring BSIM parameter XL
Ignoring BSIM parameter XW
WARNING: Node NC_01 is floating.
WARNING: Node NC_02 is floating.
WARNING: Node NC_03 is floating.
WARNING: Node NC_04 is floating.
WARNING: Node NC_05 is floating.
WARNING: Node NC_06 is floating.

WARNING: Less than two connections to node NC_01.  This node is used by M1.
WARNING: Less than two connections to node NC_02.  This node is used by M2.
WARNING: Less than two connections to node NC_03.  This node is used by M3.
WARNING: Less than two connections to node NC_04.  This node is used by M4.
WARNING: Less than two connections to node NC_05.  This node is used by M5.
WARNING: Less than two connections to node NC_06.  This node is used by M6.
Warning: Pd = 0 is less than W.
Warning: Ps = 0 is less than W.
Warning: Pd = 0 is less than W.
Warning: Ps = 0 is less than W.
Direct Newton iteration for .op point succeeded.

Date: Sat Apr 15 14:57:20 2017
Total elapsed time: 0.305 seconds.

tnom = 27
temp = 27
method = modified trap
totiter = 275
traniter = 248
tranpoints = 125
accept = 125
rejected = 0
matrix size = 19
fillins = 36
solver = Normal
Matrix Compiler1: 3.96 KB object code size  2.1/1.8/[0.9]
Matrix Compiler2: 2.35 KB object code size  0.9/1.4/[0.9]


