Circuit: * C:\Users\Nived\Desktop\ANALOG_IC_PROJECT\TwoStageFullyDiffOpamp.asc

M9: all pins shorted together -- ignoring.
Ignoring BSIM parameter XL
Ignoring BSIM parameter XW
Ignoring BSIM parameter XL
Ignoring BSIM parameter XW
Ignoring BSIM parameter XL
Ignoring BSIM parameter XW
Ignoring BSIM parameter XL
Ignoring BSIM parameter XW
Ignoring BSIM parameter XL
Ignoring BSIM parameter XW
Ignoring BSIM parameter XL
Ignoring BSIM parameter XW
WARNING: Node VIP is floating.
WARNING: Node VIM is floating.

WARNING: Less than two connections to node VIP.  This node is used by M1.
WARNING: Less than two connections to node VIM.  This node is used by M2.
Direct Newton iteration failed to find .op point.  (Use ".option noopiter" to skip.)
Starting Gmin stepping
Gmin = 10
Gmin = 1.07374
Gmin = 0.115292
Gmin = 0.0123794
Gmin = 0.00132923
Gmin = 0.000142725
Gmin = 1.5325e-005
Gmin = 1.6455e-006
Gmin = 1.76685e-007
Gmin = 1.89714e-008
Gmin = 2.03704e-009
Gmin = 2.18725e-010
Gmin = 2.34854e-011
Gmin = 2.52173e-012
Gmin = 2.70769e-013
Gmin = 0
Gmin stepping succeeded in finding the operating point.


Date: Tue May 09 10:50:15 2017
Total elapsed time: 0.422 seconds.

tnom = 27
temp = 27
method = modified trap
totiter = 673
traniter = 248
tranpoints = 125
accept = 125
rejected = 0
matrix size = 32
fillins = 18
solver = Normal
Thread vector: 50.0/30.1[2] 11.1/6.7[2] 2.4/2.4[1] 0.4/0.9[1]  2592/500
Matrix Compiler1: 4.07 KB object code size  2.0/1.3/[0.8]
Matrix Compiler2: 3.42 KB object code size  1.4/1.8/[0.9]

